Demo file for jenkins pipeline project.
Second line.
new line.
