Demo file for jenkins pipeline project.
Second line.
new line.


Editing this file on 22-06-24 to demonstrate the pipeline project.
